[Format]      =  4.0
[Frequency]   =  3.75
[Precision]   =  1e-008
[MinAngle]    =  18
[DoSmartMesh] =  1
[Depth]       =  237.0445
[LengthUnits] =  millimeters
[ProblemType] =  planar
[Coordinates] =  cartesian
[ACSolver]    =  1
[PrevType]    =  0
[PrevSoln]    =  ""
[Comment]     =  "Add comments here."
[PointProps]   = 0
[BdryProps]   = 1
  <BeginBdry>
    <BdryName> = "BC:A=0"
    <BdryType> = 0
    <A_0> = 0
    <A_1> = 0
    <A_2> = 0
    <Phi> = 0
    <c0> = 0
    <c0i> = 0
    <c1> = 0
    <c1i> = 0
    <Mu_ssd> = 0
    <Sigma_ssd> = 0
    <innerangle> = 0
    <outerangle> = 0
  <EndBdry>
[BlockProps]  = 4
  <BeginBlock>
    <BlockName> = "Air"
    <Mu_x> = 1
    <Mu_y> = 1
    <H_c> = 0
    <H_cAngle> = 0
    <J_re> = 0
    <J_im> = 0
    <Sigma> = 0
    <d_lam> = 0
    <Phi_h> = 0
    <Phi_hx> = 0
    <Phi_hy> = 0
    <LamType> = 0
    <LamFill> = 1
    <NStrands> = 0
    <WireD> = 0
    <BHPoints> = 0
  <EndBlock>
  <BeginBlock>
    <BlockName> = "Copper"
    <Mu_x> = 1
    <Mu_y> = 1
    <H_c> = 0
    <H_cAngle> = 0
    <J_re> = 0
    <J_im> = 0
    <Sigma> = 58
    <d_lam> = 0
    <Phi_h> = 0
    <Phi_hx> = 0
    <Phi_hy> = 0
    <LamType> = 0
    <LamFill> = 1
    <NStrands> = 0
    <WireD> = 0
    <BHPoints> = 0
  <EndBlock>
  <BeginBlock>
    <BlockName> = "Aluminum"
    <Mu_x> = 1
    <Mu_y> = 1
    <H_c> = 0
    <H_cAngle> = 0
    <J_re> = 0
    <J_im> = 0
    <Sigma> = 47.619047619047613
    <d_lam> = 0
    <Phi_h> = 0
    <Phi_hx> = 0
    <Phi_hy> = 0
    <LamType> = 0
    <LamFill> = 1
    <NStrands> = 0
    <WireD> = 0
    <BHPoints> = 0
  <EndBlock>
  <BeginBlock>
    <BlockName> = "M19Gauge29"
    <Mu_x> = 0
    <Mu_y> = 0
    <H_c> = 0
    <H_cAngle> = 0
    <J_re> = 0
    <J_im> = 0
    <Sigma> = 0
    <d_lam> = 0.35560000000000003
    <Phi_h> = 0
    <Phi_hx> = 0
    <Phi_hy> = 0
    <LamType> = 0
    <LamFill> = 0.94999999999999996
    <NStrands> = 0
    <WireD> = 0
    <BHPoints> = 185
      0	0
      0.040393502519099997	3.7801784999999999
      0.080769420879899995	7.5603569999999998
      0.121110170924	11.3405355
      0.16139816849300001	15.120714
      0.18161589101100001	17.020108499999999
      0.20181362516000001	18.919502999999999
      0.22198914029700001	20.818897499999999
      0.242140205779	22.718292000000002
      0.25571683711400001	23.999402249999999
      0.26928064637900001	25.2805125
      0.28283094912200002	26.561622750000002
      0.296367060889	27.842732999999999
      0.30699838653700001	28.849908249999999
      0.31762018555799998	29.857083500000002
      0.32823212536800001	30.864258750000001
      0.33883387338499998	31.871434000000001
      0.34801899151999999	32.744836499999998
      0.35719597842200002	33.618239000000003
      0.36636461720800001	34.4916415
      0.37552469099399999	35.365043999999997
      0.38400030037600003	36.173929999999999
      0.392468205071	36.982816
      0.40092823279500001	37.791702000000001
      0.40938021126200003	38.600588000000002
      0.41756330690499999	39.384491500000003
      0.425738524201	40.168394999999997
      0.43390570633999997	40.952298499999998
      0.44206469651300001	41.736201999999999
      0.45022095744399998	42.520646249999999
      0.45836870094299997	43.305090499999999
      0.46650776987600001	44.089534749999999
      0.47463800710699999	44.873978999999999
      0.482955979122	45.677436
      0.49126435245299999	46.480893000000002
      0.49956295826199998	47.284350000000003
      0.50785162771000003	48.087806999999998
      0.51647926459799998	48.925164250000002
      0.52509573443400004	49.762521499999998
      0.53370084609400004	50.599878750000002
      0.54229440845300003	51.437235999999999
      0.55135899081899997	52.321732249999997
      0.560410248444	53.206228500000002
      0.56944795607499998	54.09072475
      0.57847188845599995	54.975220999999998
      0.58809195642199996	55.919663999999997
      0.59769578757800002	56.864106999999997
      0.60728310769500005	57.808549999999997
      0.61685364254599995	58.752992999999996
      0.62714704886700001	59.770655750000003
      0.63742030493900004	60.788318500000003
      0.64767306767999999	61.805981250000002
      0.65790499400900004	62.823644000000002
      0.66899515477100002	63.92905425
      0.68005988649500004	65.034464499999999
      0.69109874948399996	66.139874750000004
      0.70211130403800004	67.245284999999996
      0.71413296428799999	68.455065250000004
      0.72612201060100001	69.664845499999998
      0.73807786660399999	70.874625750000007
      0.74999995592199997	72.084406000000001
      0.76297300785300004	73.418329499999999
      0.775634769861	74.752252999999996
      0.78797914050899998	76.086176499999993
      0.80000001836099999	77.420100000000005
      0.81301167345299996	78.90258025
      0.82568683512300001	80.385060499999994
      0.83801860418399998	81.867540750000003
      0.85000008144500006	83.350020999999998
      0.86305669685599995	85.012418749999995
      0.87574779662799995	86.674816500000006
      0.888065056114	88.337214250000002
      0.90000015066200001	89.999611999999999
      0.91311257847299998	91.884047249999995
      0.92582384683399999	93.768482500000005
      0.938123285882	95.65291775
      0.95000022575499998	97.537352999999996
      0.96318596803099998	99.703366250000002
      0.97592415289699996	101.86937949999999
      0.98820039197999998	104.03539275
      1.0000002969099999	106.20140600000001
      1.0132866972900001	108.7381705
      1.02606225208	111.274935
      1.03830683818	113.8116995
      1.05000033252	116.34846400000001
      1.06342863335	119.39818025
      1.0762571219199999	122.4478965
      1.08845720079	125.49761275
      1.10000027255	128.54732899999999
      1.11362907216	132.3518545
      1.12653208745	136.15638000000001
      1.1386691386500001	139.9609055
      1.1500000459899999	143.76543100000001
      1.16390387023	148.76261550000001
      1.17690759696	153.75980000000001
      1.1889574522599999	158.75698449999999
      1.19999966227	163.75416899999999
      1.21425500668	170.78266625000001
      1.22738361095	177.81116349999999
      1.2393201541600001	184.83966075000001
      1.24999931536	191.86815799999999
      1.2646530576899999	202.60949525000001
      1.2779162158599999	213.3508325
      1.2897209086100001	224.09216975000001
      1.2999992547400001	234.833507
      1.3150287246800001	252.75257250000001
      1.3284087368099999	270.67163799999997
      1.34008406116	288.59070350000002
      1.34999946779	306.50976900000001
      1.3652842322100001	338.69612725000002
      1.37872905807	370.88248549999997
      1.3903091544999999	403.06884374999998
      1.39999973061	435.255202
      1.4153113290399999	495.16939350000001
      1.4287325819500001	555.08358499999997
      1.440287455	614.99777649999999
      1.4499999138499999	674.911968
      1.4650178894400001	783.26536825000005
      1.4783013058300001	891.61876849999999
      1.48993405237	999.97216875000004
      1.50000001839	1108.3255690000001
      1.5144185297499999	1284.51554375
      1.5274764870899999	1460.7055184999999
      1.53929622758	1636.8954932500001
      1.55000008838	1813.085468
      1.56379869711	2060.1184562499998
      1.5766804428000001	2307.1514444999998
      1.5887220049599999	2554.1844327499998
      1.60000006307	2801.2174209999998
      1.6135017779800001	3114.3263449999999
      1.6263280705300001	3427.4352690000001
      1.6384903429	3740.5441930000002
      1.6499999972799999	4053.6531169999998
      1.6634154945899999	4438.0165602500001
      1.6762083086999999	4822.3800035000004
      1.6883969722200001	5206.7434467499997
      1.7000000177600001	5591.10689
      1.7133842241299999	6055.4097707499996
      1.7261879114400001	6519.7126515
      1.7383976459999999	6984.0155322500004
      1.74999999411	7448.318413
      1.7634359308900001	8013.4427272499997
      1.77624916625	8578.5670415000004
      1.7884378189200001	9143.6913557499993
      1.8000000076	9708.81567
      1.8135056489000001	10403.344656200001
      1.8263576964499999	11097.873642500001
      1.83853090176	11792.4026288
      1.8500000163700001	12486.931615
      1.86383276338	13375.569622200001
      1.8768406764900001	14264.207629500001
      1.888928261	15152.845636800001
      1.90000002223	16041.483644
      1.91483103513	17343.467889
      1.92828510969	18645.452133999999
      1.9400966255700001	19947.436378999999
      1.94999996248	21249.420623999998
      1.9660187278900001	23765.439437500001
      1.9797604686600001	26281.458251
      1.9911219600800001	28797.477064499999
      1.9999999774199999	31313.495878000002
      2.01558566376	36882.483627699999
      2.02890239705	42451.471377499998
      2.0402679269699999	48020.459127299997
      2.0500000032100001	53589.446877000002
      2.0635336891599998	62311.456308000001
      2.0761276184200002	71033.465739000007
      2.0881577419299999	79755.475170000005
      2.1000000106700001	88477.484601000004
      2.1122908943900001	97440.466085699998
      2.1247406622499998	106403.44757
      2.1373201021599999	115366.429055
      2.1500000020300001	124329.41054
      2.1626625654099998	133239.20022999999
      2.1752886017100002	142148.98991999999
      2.1877703359999998	151058.77961
      2.1999999933200001	159968.5693
      2.2126403241600001	169414.32804299999
      2.22508058305	178860.086786
      2.2374805501599999	188305.84552900001
      2.25000000567	197751.604272
      2.2622556443600002	206819.891041
      2.2747207343800002	215888.17780999999
      2.2873254586399998	224956.46457800001
      2.2999999999999998	234024.75134700001
  <EndBlock>
[CircuitProps]  = 14
  <BeginCircuit>
    <CircuitName> = "rA"
    <TotalAmps_re> = 0
    <TotalAmps_im> = 0
    <CircuitType> = 0
  <EndCircuit>
  <BeginCircuit>
    <CircuitName> = "rB"
    <TotalAmps_re> = 0
    <TotalAmps_im> = 0
    <CircuitType> = 0
  <EndCircuit>
  <BeginCircuit>
    <CircuitName> = "rC"
    <TotalAmps_re> = 0
    <TotalAmps_im> = 0
    <CircuitType> = 0
  <EndCircuit>
  <BeginCircuit>
    <CircuitName> = "rD"
    <TotalAmps_re> = 0
    <TotalAmps_im> = 0
    <CircuitType> = 0
  <EndCircuit>
  <BeginCircuit>
    <CircuitName> = "rE"
    <TotalAmps_re> = 0
    <TotalAmps_im> = 0
    <CircuitType> = 0
  <EndCircuit>
  <BeginCircuit>
    <CircuitName> = "rF"
    <TotalAmps_re> = 0
    <TotalAmps_im> = 0
    <CircuitType> = 0
  <EndCircuit>
  <BeginCircuit>
    <CircuitName> = "rG"
    <TotalAmps_re> = 0
    <TotalAmps_im> = 0
    <CircuitType> = 0
  <EndCircuit>
  <BeginCircuit>
    <CircuitName> = "rH"
    <TotalAmps_re> = 0
    <TotalAmps_im> = 0
    <CircuitType> = 0
  <EndCircuit>
  <BeginCircuit>
    <CircuitName> = "dU"
    <TotalAmps_re> = 127.89700000000001
    <TotalAmps_im> = 0
    <CircuitType> = 1
  <EndCircuit>
  <BeginCircuit>
    <CircuitName> = "dV"
    <TotalAmps_re> = -63.948500000000003
    <TotalAmps_im> = -110.76205106781835
    <CircuitType> = 1
  <EndCircuit>
  <BeginCircuit>
    <CircuitName> = "dW"
    <TotalAmps_re> = -63.948500000000003
    <TotalAmps_im> = 110.76205106781835
    <CircuitType> = 1
  <EndCircuit>
  <BeginCircuit>
    <CircuitName> = "bU"
    <TotalAmps_re> = 127.89700000000001
    <TotalAmps_im> = 0
    <CircuitType> = 1
  <EndCircuit>
  <BeginCircuit>
    <CircuitName> = "bV"
    <TotalAmps_re> = -63.948500000000003
    <TotalAmps_im> = -110.76205106781835
    <CircuitType> = 1
  <EndCircuit>
  <BeginCircuit>
    <CircuitName> = "bW"
    <TotalAmps_re> = -63.948500000000003
    <TotalAmps_im> = 110.76205106781835
    <CircuitType> = 1
  <EndCircuit>
[NumPoints] = 380
-34.23639263718978	3.9251558625736438	0	0
-34.460664958084003	0	0	0
-36.821271787230138	4.2654616586380421	0	0
-38.276949317400963	2.6912132463745948	0	0
-59.144203227471699	2.6912132463745948	0	0
-58.698889721090616	7.7278554373886967	0	0
-36.821271787230138	4.8476123951331624	0	0
-34.23639263718978	-3.9251558625736438	0	0
-36.821271787230138	-4.2654616586380421	0	0
-38.276949317400963	-2.6912132463745948	0	0
-59.144203227471699	-2.6912132463745948	0	0
-58.698889721090616	-7.7278554373886967	0	0
-36.821271787230138	-4.8476123951331624	0	0
-34.085720939464387	-5.0696210302426028	0	0
-33.28644627410803	-8.9190763980491994	0	0
-36.670600089504745	-5.4099268263070019	0	0
-37.669231139829243	-7.307291093042835	0	0
-57.825450615298109	-12.708133823959185	0	0
-32.053910755004644	-12.652439869982258	0	0
-34.462634662684522	-13.650165980555583	0	0
-36.27615665464139	-12.506315850491767	0	0
-56.432376130110256	-17.907158581408119	0	0
-54.698657391100092	-22.656925734992988	0	0
-34.311962964959122	-14.212480411729421	0	0
-31.612163689031686	-13.718911627792689	0	0
-29.843811285004957	-17.230332479041998	0	0
-34.02088759671156	-14.716637738366014	0	0
-34.49441711142596	-16.807815620338889	0	0
-52.565989104767375	-27.241442575374258	0	0
-27.687007826458039	-20.517481009397084	0	0
-29.755425938073522	-22.104634048864117	0	0
-31.803203865051369	-21.469133697062066	0	0
-49.874775858392788	-31.902760652097435	0	0
-46.970801953711394	-36.04196398609762	0	0
-29.46435056982596	-22.608791375500711	0	0
-26.984289724762036	-21.433281069482121	0	0
-24.367369876058831	-24.367369876058827	0	0
-29.052707836377515	-23.020434108949157	0	0
-28.968865561598552	-25.162915289337469	0	0
-43.724242306151069	-39.91829203388999	0	0
-21.433281069482128	-26.984289724762036	0	0
-23.020434108949161	-29.052707836377511	0	0
-25.162915289337473	-28.968865561598548	0	0
-39.918292033889998	-43.724242306151062	0	0
-36.041963986097628	-46.97080195371138	0	0
-22.608791375500719	-29.464350569825953	0	0
-20.517481009397091	-27.687007826458036	0	0
-17.230332479042005	-29.843811285004954	0	0
-22.104634048864124	-29.755425938073515	0	0
-21.469133697062073	-31.803203865051362	0	0
-31.902760652097445	-49.874775858392773	0	0
-13.718911627792698	-31.612163689031682	0	0
-14.716637738366021	-34.02088759671156	0	0
-16.807815620338896	-34.49441711142596	0	0
-27.241442575374268	-52.565989104767375	0	0
-22.656925734992999	-54.698657391100085	0	0
-14.212480411729427	-34.311962964959122	0	0
-12.652439869982258	-32.053910755004644	0	0
-8.9190763980491994	-33.28644627410803	0	0
-13.650165980555583	-34.462634662684522	0	0
-12.506315850491767	-36.27615665464139	0	0
-17.907158581408119	-56.432376130110256	0	0
-5.0696210302426028	-34.085720939464387	0	0
-5.4099268263070019	-36.670600089504745	0	0
-7.307291093042835	-37.669231139829243	0	0
-12.708133823959185	-57.825450615298109	0	0
-7.7278554373886967	-58.698889721090616	0	0
-4.8476123951331633	-36.821271787230145	0	0
-3.925155862573646	-34.23639263718978	0	0
-2.1101071518703466e-015	-34.460664958084003	0	0
-4.2654616586380447	-36.821271787230138	0	0
-2.691213246374597	-38.276949317400963	0	0
-2.6912132463745984	-59.144203227471699	0	0
3.9251558625736416	-34.23639263718978	0	0
4.2654616586380394	-36.821271787230138	0	0
2.6912132463745926	-38.276949317400963	0	0
2.6912132463745913	-59.144203227471699	0	0
7.7278554373886932	-58.698889721090616	0	0
4.8476123951331598	-36.821271787230138	0	0
5.0696210302426064	-34.085720939464387	0	0
8.9190763980492029	-33.28644627410803	0	0
5.4099268263070055	-36.670600089504745	0	0
7.3072910930428385	-37.669231139829243	0	0
12.708133823959191	-57.825450615298109	0	0
12.652439869982262	-32.053910755004644	0	0
13.650165980555586	-34.462634662684522	0	0
12.50631585049177	-36.27615665464139	0	0
17.907158581408122	-56.432376130110256	0	0
22.656925734992996	-54.698657391100085	0	0
14.212480411729425	-34.311962964959122	0	0
13.718911627792686	-31.612163689031682	0	0
17.230332479041994	-29.843811285004957	0	0
14.716637738366011	-34.02088759671156	0	0
16.807815620338886	-34.49441711142596	0	0
27.241442575374247	-52.565989104767375	0	0
20.517481009397081	-27.687007826458043	0	0
22.104634048864114	-29.755425938073522	0	0
21.469133697062063	-31.803203865051369	0	0
31.902760652097424	-49.874775858392788	0	0
36.041963986097613	-46.970801953711394	0	0
22.608791375500708	-29.46435056982596	0	0
21.433281069482121	-26.984289724762036	0	0
24.367369876058827	-24.367369876058831	0	0
23.020434108949157	-29.052707836377515	0	0
25.162915289337469	-28.968865561598552	0	0
39.91829203388999	-43.724242306151069	0	0
26.984289724762036	-21.433281069482128	0	0
29.052707836377511	-23.020434108949161	0	0
28.968865561598548	-25.162915289337473	0	0
43.724242306151062	-39.918292033889998	0	0
46.97080195371138	-36.041963986097628	0	0
29.464350569825953	-22.608791375500719	0	0
27.687007826458039	-20.517481009397084	0	0
29.843811285004957	-17.230332479041998	0	0
29.755425938073522	-22.104634048864117	0	0
31.803203865051369	-21.469133697062066	0	0
49.874775858392788	-31.902760652097435	0	0
31.612163689031686	-13.718911627792689	0	0
34.02088759671156	-14.716637738366014	0	0
34.49441711142596	-16.807815620338889	0	0
52.565989104767375	-27.241442575374258	0	0
54.698657391100092	-22.656925734992988	0	0
34.311962964959122	-14.21248041172942	0	0
32.053910755004637	-12.652439869982269	0	0
33.28644627410803	-8.9190763980492083	0	0
34.462634662684515	-13.650165980555592	0	0
36.276156654641383	-12.506315850491777	0	0
56.432376130110249	-17.907158581408133	0	0
34.08572093946438	-5.0696210302426135	0	0
36.670600089504738	-5.4099268263070108	0	0
37.669231139829236	-7.3072910930428456	0	0
57.825450615298102	-12.708133823959201	0	0
58.698889721090616	-7.7278554373887136	0	0
36.821271787230138	-4.8476123951331722	0	0
34.23639263718978	-3.9251558625736478	0	0
34.460664958084003	-4.2202143037406932e-015	0	0
36.821271787230138	-4.2654616586380465	0	0
38.276949317400963	-2.6912132463745997	0	0
59.144203227471699	-2.6912132463746019	0	0
34.23639263718978	3.9251558625736398	0	0
36.821271787230138	4.2654616586380376	0	0
38.276949317400963	2.6912132463745899	0	0
59.144203227471699	2.6912132463745877	0	0
58.698889721090616	7.7278554373886896	0	0
36.821271787230138	4.847612395133158	0	0
34.085720939464387	5.0696210302425904	0	0
33.286446274108037	8.9190763980491869	0	0
36.670600089504745	5.4099268263069851	0	0
37.669231139829243	7.3072910930428181	0	0
57.825450615298116	12.708133823959162	0	0
32.053910755004644	12.652439869982246	0	0
34.462634662684522	13.650165980555567	0	0
36.27615665464139	12.506315850491752	0	0
56.432376130110264	17.907158581408094	0	0
54.698657391100099	22.656925734992967	0	0
34.311962964959129	14.212480411729405	0	0
31.612163689031682	13.718911627792698	0	0
29.843811285004954	17.230332479042005	0	0
34.02088759671156	14.716637738366021	0	0
34.49441711142596	16.807815620338896	0	0
52.565989104767375	27.241442575374268	0	0
27.687007826458036	20.517481009397091	0	0
29.755425938073515	22.104634048864124	0	0
31.803203865051362	21.469133697062073	0	0
49.874775858392773	31.902760652097445	0	0
46.970801953711387	36.041963986097628	0	0
29.464350569825957	22.608791375500719	0	0
26.984289724762039	21.433281069482121	0	0
24.367369876058838	24.367369876058827	0	0
29.052707836377518	23.020434108949154	0	0
28.968865561598559	25.162915289337469	0	0
43.724242306151076	39.91829203388999	0	0
21.433281069482131	26.984289724762036	0	0
23.020434108949164	29.052707836377515	0	0
25.16291528933748	28.968865561598548	0	0
39.918292033890005	43.724242306151062	0	0
36.041963986097635	46.97080195371138	0	0
22.608791375500722	29.464350569825957	0	0
20.517481009397098	27.687007826458029	0	0
17.230332479042016	29.843811285004943	0	0
22.104634048864138	29.755425938073508	0	0
21.469133697062087	31.803203865051355	0	0
31.902760652097463	49.874775858392759	0	0
13.718911627792709	31.612163689031675	0	0
14.716637738366035	34.020887596711553	0	0
16.807815620338911	34.494417111425953	0	0
27.241442575374286	52.565989104767361	0	0
22.65692573499302	54.69865739110007	0	0
14.212480411729441	34.311962964959115	0	0
12.652439869982254	32.053910755004644	0	0
8.9190763980491958	33.28644627410803	0	0
13.650165980555578	34.462634662684522	0	0
12.506315850491761	36.27615665464139	0	0
17.907158581408112	56.432376130110256	0	0
5.0696210302425992	34.085720939464387	0	0
5.4099268263069966	36.670600089504745	0	0
7.3072910930428296	37.669231139829243	0	0
12.708133823959178	57.825450615298109	0	0
7.7278554373886896	58.698889721090616	0	0
4.847612395133158	36.821271787230138	0	0
3.92515586257365	34.23639263718978	0	0
6.3303214556110394e-015	34.460664958084003	0	0
4.2654616586380492	36.821271787230138	0	0
2.6912132463746019	38.276949317400963	0	0
2.6912132463746055	59.144203227471699	0	0
-3.9251558625736376	34.23639263718978	0	0
-4.2654616586380349	36.821271787230138	0	0
-2.6912132463745877	38.276949317400963	0	0
-2.6912132463745841	59.144203227471699	0	0
-7.7278554373886861	58.698889721090616	0	0
-4.8476123951331553	36.821271787230138	0	0
-5.069621030242617	34.08572093946438	0	0
-8.9190763980492136	33.28644627410803	0	0
-5.4099268263070162	36.670600089504738	0	0
-7.3072910930428492	37.669231139829236	0	0
-12.708133823959207	57.825450615298102	0	0
-12.652439869982272	32.053910755004637	0	0
-13.650165980555597	34.462634662684515	0	0
-12.506315850491781	36.276156654641383	0	0
-17.90715858140814	56.432376130110249	0	0
-22.65692573499301	54.698657391100078	0	0
-14.212480411729436	34.311962964959115	0	0
-13.718911627792698	31.612163689031682	0	0
-17.230332479042005	29.843811285004954	0	0
-14.716637738366021	34.02088759671156	0	0
-16.807815620338896	34.49441711142596	0	0
-27.241442575374268	52.565989104767375	0	0
-20.517481009397091	27.687007826458036	0	0
-22.104634048864124	29.755425938073515	0	0
-21.469133697062073	31.803203865051362	0	0
-31.902760652097445	49.874775858392773	0	0
-36.041963986097628	46.970801953711387	0	0
-22.608791375500719	29.464350569825957	0	0
-21.433281069482117	26.984289724762039	0	0
-24.367369876058824	24.367369876058838	0	0
-23.020434108949154	29.052707836377518	0	0
-25.162915289337466	28.968865561598559	0	0
-39.918292033889983	43.724242306151076	0	0
-26.984289724762032	21.433281069482131	0	0
-29.052707836377508	23.020434108949164	0	0
-28.968865561598545	25.16291528933748	0	0
-43.724242306151055	39.918292033890005	0	0
-46.970801953711373	36.041963986097635	0	0
-29.464350569825953	22.608791375500722	0	0
-27.687007826458029	20.517481009397098	0	0
-29.843811285004943	17.230332479042016	0	0
-29.755425938073508	22.104634048864138	0	0
-31.803203865051355	21.469133697062087	0	0
-49.874775858392759	31.902760652097463	0	0
-31.612163689031675	13.718911627792709	0	0
-34.020887596711553	14.716637738366035	0	0
-34.494417111425953	16.807815620338911	0	0
-52.565989104767361	27.241442575374286	0	0
-54.69865739110007	22.65692573499302	0	0
-34.311962964959115	14.212480411729441	0	0
-32.053910755004644	12.652439869982256	0	0
-33.28644627410803	8.9190763980491976	0	0
-34.462634662684522	13.650165980555579	0	0
-36.27615665464139	12.506315850491763	0	0
-56.432376130110256	17.907158581408115	0	0
-34.085720939464387	5.069621030242601	0	0
-36.670600089504745	5.4099268263069984	0	0
-37.669231139829243	7.3072910930428314	0	0
-57.825450615298109	12.708133823959182	0	0
-31.199466319323044	6.2059597065584509	0	0
-31.807743848116125	0.43366551930129549	0	0
-31.275233508234813	0.43366551930129549	0	0
-25.972600705532262	0	0	0
-31.310700000000001	0	0	0
-31.199466319323044	-6.2059597065584509	0	0
-31.807743848116125	-0.43366551930129549	0	0
-31.275233508234813	-0.43366551930129549	0	0
-29.552480126060889	-11.771641894348303	0	0
-29.060504722193915	-11.567859009712622	0	0
-23.995554197929462	-9.9392839854410386	0	0
-28.927314878601145	-11.982086145753616	0	0
-26.449630396072578	-17.673078011516662	0	0
-29.220566907211673	-12.572951288824992	0	0
-28.728591503344699	-12.369168404189312	0	0
-22.798119198712335	-22.184823539782865	0	0
-22.421577526330307	-21.808281867400837	0	0
-18.365402083932374	-18.36540208393237	0	0
-22.140008293697637	-22.140008293697633	0	0
-17.673078011516665	-26.449630396072575	0	0
-22.184823539782869	-22.798119198712332	0	0
-21.80828186740084	-22.421577526330303	0	0
-12.572951288824994	-29.220566907211673	0	0
-12.369168404189313	-28.728591503344699	0	0
-9.9392839854410404	-23.995554197929462	0	0
-11.982086145753618	-28.927314878601145	0	0
-6.2059597065584553	-31.199466319323044	0	0
-11.771641894348305	-29.552480126060889	0	0
-11.567859009712624	-29.060504722193915	0	0
-0.43366551930129743	-31.807743848116125	0	0
-0.43366551930129738	-31.275233508234813	0	0
-1.5903631159781186e-015	-25.972600705532262	0	0
-1.9172274267031517e-015	-31.310700000000001	0	0
6.2059597065584491	-31.199466319323044	0	0
0.43366551930129354	-31.807743848116125	0	0
0.4336655193012936	-31.275233508234813	0	0
11.771641894348301	-29.552480126060889	0	0
11.56785900971262	-29.060504722193915	0	0
9.9392839854410369	-23.995554197929462	0	0
11.982086145753614	-28.927314878601145	0	0
17.673078011516658	-26.449630396072578	0	0
12.57295128882499	-29.220566907211673	0	0
12.36916840418931	-28.728591503344699	0	0
22.184823539782865	-22.798119198712335	0	0
21.808281867400837	-22.421577526330307	0	0
18.36540208393237	-18.365402083932374	0	0
22.140008293697633	-22.140008293697637	0	0
26.449630396072575	-17.673078011516665	0	0
22.798119198712332	-22.184823539782869	0	0
22.421577526330303	-21.80828186740084	0	0
29.220566907211673	-12.572951288824996	0	0
28.728591503344699	-12.369168404189315	0	0
23.995554197929462	-9.9392839854410422	0	0
28.927314878601145	-11.98208614575362	0	0
31.199466319323044	-6.2059597065584571	0	0
29.552480126060889	-11.771641894348306	0	0
29.060504722193915	-11.567859009712626	0	0
31.807743848116125	-0.43366551930129937	0	0
31.275233508234813	-0.43366551930129932	0	0
25.972600705532262	-3.1807262319562372e-015	0	0
31.310700000000001	-3.8344548534063035e-015	0	0
31.199466319323044	6.2059597065584473	0	0
31.807743848116125	0.4336655193012916	0	0
31.275233508234813	0.43366551930129166	0	0
29.552480126060896	11.771641894348285	0	0
29.060504722193922	11.567859009712604	0	0
23.995554197929469	9.9392839854410244	0	0
28.927314878601152	11.9820861457536	0	0
26.449630396072589	17.673078011516644	0	0
29.22056690721168	12.572951288824974	0	0
28.728591503344706	12.369168404189294	0	0
22.798119198712339	22.184823539782865	0	0
22.42157752633031	21.808281867400837	0	0
18.365402083932374	18.36540208393237	0	0
22.14000829369764	22.140008293697633	0	0
17.673078011516669	26.449630396072578	0	0
22.184823539782872	22.798119198712332	0	0
21.808281867400844	22.421577526330303	0	0
12.572951288824983	29.220566907211676	0	0
12.369168404189303	28.728591503344703	0	0
9.9392839854410315	23.995554197929465	0	0
11.982086145753609	28.927314878601148	0	0
6.2059597065584438	31.199466319323047	0	0
11.771641894348294	29.552480126060892	0	0
11.567859009712613	29.060504722193919	0	0
0.43366551930130132	31.807743848116125	0	0
0.43366551930130121	31.275233508234813	0	0
4.7710893479343552e-015	25.972600705532262	0	0
5.7516822801094544e-015	31.310700000000001	0	0
-6.2059597065584455	31.199466319323044	0	0
-0.43366551930128966	31.807743848116125	0	0
-0.43366551930128977	31.275233508234813	0	0
-11.77164189434831	29.552480126060885	0	0
-11.567859009712629	29.060504722193915	0	0
-9.939283985441044	23.995554197929458	0	0
-11.982086145753623	28.927314878601141	0	0
-17.673078011516665	26.449630396072571	0	0
-12.572951288824999	29.220566907211669	0	0
-12.369168404189319	28.728591503344699	0	0
-22.184823539782862	22.798119198712339	0	0
-21.808281867400833	22.42157752633031	0	0
-18.365402083932366	18.365402083932374	0	0
-22.14000829369763	22.14000829369764	0	0
-26.449630396072571	17.673078011516669	0	0
-22.798119198712328	22.184823539782872	0	0
-22.421577526330299	21.808281867400844	0	0
-29.220566907211676	12.572951288824985	0	0
-28.728591503344703	12.369168404189304	0	0
-23.995554197929465	9.9392839854410333	0	0
-28.927314878601148	11.982086145753611	0	0
-29.552480126060892	11.771641894348296	0	0
-29.060504722193919	11.567859009712615	0	0
4.6718349999999997	0	0	0
-4.6718349999999997	0	0	0
74.374150999999998	0	0	0
-74.374150999999998	0	0	0
[NumSegments] = 248
0	2	-1	0	0	0
2	3	-1	0	0	0
3	4	-1	0	0	0
3	6	-1	0	0	0
5	6	-1	0	0	0
7	8	-1	0	0	0
8	9	-1	0	0	0
9	10	-1	0	0	0
9	12	-1	0	0	0
11	12	-1	0	0	0
13	15	-1	0	0	0
15	16	-1	0	0	0
16	17	-1	0	0	0
16	12	-1	0	0	0
18	19	-1	0	0	0
19	20	-1	0	0	0
20	21	-1	0	0	0
20	23	-1	0	0	0
22	23	-1	0	0	0
24	26	-1	0	0	0
26	27	-1	0	0	0
27	28	-1	0	0	0
27	23	-1	0	0	0
29	30	-1	0	0	0
30	31	-1	0	0	0
31	32	-1	0	0	0
31	34	-1	0	0	0
33	34	-1	0	0	0
35	37	-1	0	0	0
37	38	-1	0	0	0
38	39	-1	0	0	0
38	34	-1	0	0	0
40	41	-1	0	0	0
41	42	-1	0	0	0
42	43	-1	0	0	0
42	45	-1	0	0	0
44	45	-1	0	0	0
46	48	-1	0	0	0
48	49	-1	0	0	0
49	50	-1	0	0	0
49	45	-1	0	0	0
51	52	-1	0	0	0
52	53	-1	0	0	0
53	54	-1	0	0	0
53	56	-1	0	0	0
55	56	-1	0	0	0
57	59	-1	0	0	0
59	60	-1	0	0	0
60	61	-1	0	0	0
60	56	-1	0	0	0
62	63	-1	0	0	0
63	64	-1	0	0	0
64	65	-1	0	0	0
64	67	-1	0	0	0
66	67	-1	0	0	0
68	70	-1	0	0	0
70	71	-1	0	0	0
71	72	-1	0	0	0
71	67	-1	0	0	0
73	74	-1	0	0	0
74	75	-1	0	0	0
75	76	-1	0	0	0
75	78	-1	0	0	0
77	78	-1	0	0	0
79	81	-1	0	0	0
81	82	-1	0	0	0
82	83	-1	0	0	0
82	78	-1	0	0	0
84	85	-1	0	0	0
85	86	-1	0	0	0
86	87	-1	0	0	0
86	89	-1	0	0	0
88	89	-1	0	0	0
90	92	-1	0	0	0
92	93	-1	0	0	0
93	94	-1	0	0	0
93	89	-1	0	0	0
95	96	-1	0	0	0
96	97	-1	0	0	0
97	98	-1	0	0	0
97	100	-1	0	0	0
99	100	-1	0	0	0
101	103	-1	0	0	0
103	104	-1	0	0	0
104	105	-1	0	0	0
104	100	-1	0	0	0
106	107	-1	0	0	0
107	108	-1	0	0	0
108	109	-1	0	0	0
108	111	-1	0	0	0